@<TRIPOS>MOLECULE
*****
 28 31 0 0 0
SMALL
GASTEIGER

@<TRIPOS>ATOM
      1 N          21.0010   64.2900   15.7510 N.3     1  LIG1       -0.2690
      2 C          22.1790   68.3830   15.0350 C.3     1  LIG1        0.0081
      3 C          22.3850   69.1340   13.7330 C.3     1  LIG1        0.0663
      4 C          23.5320   68.5440   12.8810 C.3     1  LIG1        0.0342
      5 C          22.7900   70.5760   13.9880 C.2     1  LIG1        0.1727
      6 C          24.4270   69.7130   12.6150 C.ar    1  LIG1       -0.0158
      7 C          24.0110   70.8720   13.2560 C.ar    1  LIG1        0.0340
      8 C          25.5790   69.7300   11.8440 C.ar    1  LIG1        0.0359
      9 C          24.6930   72.0710   13.1650 C.ar    1  LIG1        0.0426
     10 C          26.2900   70.9290   11.7310 C.ar    1  LIG1        0.1721
     11 C          25.8510   72.0910   12.3870 C.ar    1  LIG1        0.1725
     12 C          28.4440   70.0160   11.2990 C.3     1  LIG1        0.2526
     13 C          26.0820   74.2040   11.3210 C.3     1  LIG1        0.2526
     14 C          21.9330   66.8980   14.7880 C.3     1  LIG1        0.0032
     15 C          22.7550   66.0360   15.7530 C.3     1  LIG1        0.0174
     16 C          20.4460   66.5560   14.9270 C.3     1  LIG1        0.0174
     17 C          22.4360   64.5490   15.5790 C.3     1  LIG1        0.0724
     18 C          20.2040   65.0520   14.7790 C.3     1  LIG1        0.0724
     19 C          20.7200   62.8600   15.6330 C.3     1  LIG1        0.0991
     20 C          20.2660   62.2660   16.9400 C.ar    1  LIG1       -0.0061
     21 C          21.2060   61.7460   17.8180 C.ar    1  LIG1       -0.0029
     22 C          18.9130   62.2480   17.2490 C.ar    1  LIG1       -0.0029
     23 C          20.7850   61.1970   19.0290 C.ar    1  LIG1       -0.0003
     24 C          18.4920   61.7000   18.4610 C.ar    1  LIG1       -0.0003
     25 C          19.4280   61.1740   19.3500 C.ar    1  LIG1       -0.0000
     26 O          22.2010   71.3830   14.6840 O.2     1  LIG1       -0.2913
     27 O          27.4250   70.9580   10.9740 O.3     1  LIG1       -0.4684
     28 O          26.5560   73.2520   12.2710 O.3     1  LIG1       -0.4684
@<TRIPOS>BOND
     1     1    17    1
     2     1    18    1
     3     1    19    1
     4     2     3    1
     5     2    14    1
     6     3     4    1
     7     3     5    1
     8     4     6    1
     9     5     7    1
    10     5    26    2
    11     6     7   ar
    12     6     8   ar
    13     7     9   ar
    14     8    10   ar
    15     9    11   ar
    16    10    11   ar
    17    10    27    1
    18    11    28    1
    19    12    27    1
    20    13    28    1
    21    14    15    1
    22    14    16    1
    23    15    17    1
    24    16    18    1
    25    19    20    1
    26    20    21   ar
    27    20    22   ar
    28    21    23   ar
    29    22    24   ar
    30    23    25   ar
    31    24    25   ar
